<?xml version="1.0" encoding="UTF-8"?>
<routes>
    <route id="1" town="Town01">
        <weather 
            cloudiness="0"
            precipitation="0"
            precipitation_deposits="0"
            wind_intensity="0"
            sun_azimuth_angle="0"
            sun_altitude_angle="70"
            fog_density="0"
            fog_distance="0"
            wetness="0"
        />
        <waypoint pitch="0.0" roll="0.0" x="53.05508041381836" y="-2.35788631439209" yaw="-179.970947265625" z="0.0" />
        <waypoint pitch="0.0" roll="0.0" x="-2.673415422439575" y="28.63454818725586" yaw="89.88465118408203" z="0.0" />
        <waypoint pitch="0.0" roll="0.0" x="-2.3427786827087402" y="52.8701171875" yaw="89.88465118408203" z="0.0" />
    </route>
    <route id="2" town="Town01">
        <weather 
            cloudiness="0"
            precipitation="10"
            precipitation_deposits="0"
            wind_intensity="0"
            sun_azimuth_angle="0"
            sun_altitude_angle="70"
            fog_density="0"
            fog_distance="0"
            wetness="0"
        />
        <waypoint pitch="0.0" roll="0.0" x="-0.85" y="145.92" yaw="-179.970947265625" z="0.0" />
        <waypoint pitch="0.0" roll="0.0" x="-0.75" y="171.12" yaw="89.88465118408203" z="0.0" />
        <waypoint pitch="0.0" roll="0.0" x="-0.75" y="232.42" yaw="89.88465118408203" z="0.0" />
    </route>
</routes>